Version 4
SHEET 1 1044 720
WIRE -224 16 -592 16
WIRE 880 64 864 64
WIRE -592 176 -592 16
WIRE -224 176 -224 16
WIRE -128 176 -224 176
WIRE 496 176 464 176
WIRE 656 176 560 176
WIRE 864 176 864 64
WIRE 864 176 736 176
WIRE 1040 176 864 176
WIRE 128 192 -16 192
WIRE 464 192 464 176
WIRE 464 192 240 192
WIRE -128 208 -320 208
WIRE 864 224 864 176
WIRE -320 240 -320 208
WIRE -320 240 -368 240
WIRE 864 368 864 304
WIRE -320 528 -320 240
WIRE 368 528 -320 528
WIRE 1040 528 1040 176
WIRE 1040 528 448 528
FLAG -592 176 0
FLAG 880 64 RLC_PID
IOPIN 880 64 Out
FLAG 864 368 0
FLAG -368 240 INPUT
IOPIN -368 240 In
FLAG -592 16 Referance
IOPIN -592 16 In
SYMBOL PID 176 192 R0
SYMATTR InstName X1
SYMBOL SUBTRACTOR -80 176 R0
SYMATTR InstName X2
SYMBOL res 880 320 R180
WINDOW 0 36 76 Left 2
WINDOW 3 36 40 Left 2
SYMATTR InstName R1
SYMATTR Value 100
SYMBOL ind 640 192 R270
WINDOW 0 32 56 VTop 2
WINDOW 3 5 56 VBottom 2
SYMATTR InstName L1
SYMATTR Value 1mH
SYMBOL cap 560 160 R90
WINDOW 0 0 32 VBottom 2
WINDOW 3 32 32 VTop 2
SYMATTR InstName C1
SYMATTR Value 1nF
SYMBOL voltage 352 528 R270
WINDOW 0 32 56 VTop 2
WINDOW 3 -32 56 VBottom 2
WINDOW 123 0 0 Left 0
WINDOW 39 0 0 Left 0
SYMATTR InstName V1
SYMATTR Value PULSE(-5 5 0 0 0 0.0025m 0.05m)
TEXT -72 8 Left 2 !.tran 1ms
